#\#CIF_2.0
# CIF file created by MOFUN using PyCifRW.
data_structure

_symmetry_space_group_name_H-M          'P 1'
_symmetry_Int_Tables_number             1
_cell_length_a                          41.4008
_cell_length_b                          41.4008
_cell_length_c                          41.4008
_cell_angle_alpha                       90.0000
_cell_angle_beta                        90.0000
_cell_angle_gamma                       90.0000
loop_
  _atom_site_label
  _atom_site_type_symbol
  _atom_site_fract_x
  _atom_site_fract_y
  _atom_site_fract_z
  _atom_site_charge
  _atom_site_occupancy
  _atom_site_thermal_displace_type
  _atom_site_b_iso_or_equiv
         Zr1       Zr        0.0600    0.0000    0.0000    0.0       .         .        .        
         Zr2       Zr        0.0000    0.4401    0.0000    0.0       .         .        .        
         Zr3       Zr        0.0000    0.1900    0.2500    0.0       .         .        .        
         Zr4       Zr        0.0000    0.2500    0.3100    0.0       .         .        .        
         Zr5       Zr        0.3100    0.0000    0.2500    0.0       .         .        .        
         Zr6       Zr        0.2500    0.0600    0.2500    0.0       .         .        .        
         Zr7       Zr        0.2500    0.0000    0.1900    0.0       .         .        .        
         Zr8       Zr        0.3100    0.2500    0.0000    0.0       .         .        .        
         Zr9       Zr        0.2500    0.2500    0.0600    0.0       .         .        .        
         Zr10      Zr        0.0000    0.5599    0.0000    0.0       .         .        .        
         Zr11      Zr        0.0000    0.5000    0.4401    0.0       .         .        .        
         Zr12      Zr        0.0600    0.7500    0.2500    0.0       .         .        .        
         Zr13      Zr        0.4401    0.7500    0.2500    0.0       .         .        .        
         Zr14      Zr        0.0000    0.8099    0.2500    0.0       .         .        .        
         Zr15      Zr        0.0000    0.7500    0.3100    0.0       .         .        .        
         Zr16      Zr        0.3100    0.5000    0.2500    0.0       .         .        .        
         Zr17      Zr        0.1900    0.5000    0.2500    0.0       .         .        .        
         Zr18      Zr        0.2500    0.5000    0.1900    0.0       .         .        .        
         Zr19      Zr        0.1900    0.7500    0.0000    0.0       .         .        .        
         Zr20      Zr        0.2500    0.8099    0.0000    0.0       .         .        .        
         Zr21      Zr        0.2500    0.7500    0.4401    0.0       .         .        .        
         Zr22      Zr        0.9401    0.0000    0.0000    0.0       .         .        .        
         Zr23      Zr        0.5000    0.0600    0.0000    0.0       .         .        .        
         Zr24      Zr        0.5000    0.4401    0.0000    0.0       .         .        .        
         Zr25      Zr        0.5000    0.0000    0.0600    0.0       .         .        .        
         Zr26      Zr        0.5599    0.2500    0.2500    0.0       .         .        .        
         Zr27      Zr        0.9401    0.2500    0.2500    0.0       .         .        .        
         Zr28      Zr        0.5000    0.3100    0.2500    0.0       .         .        .        
         Zr29      Zr        0.5000    0.2500    0.1900    0.0       .         .        .        
         Zr30      Zr        0.6900    0.0000    0.2500    0.0       .         .        .        
         Zr31      Zr        0.7500    0.4401    0.2500    0.0       .         .        .        
         Zr32      Zr        0.7500    0.0000    0.3100    0.0       .         .        .        
         Zr33      Zr        0.8099    0.2500    0.0000    0.0       .         .        .        
         Zr34      Zr        0.7500    0.3100    0.0000    0.0       .         .        .        
         Zr35      Zr        0.7500    0.2500    0.4401    0.0       .         .        .        
         Zr36      Zr        0.5000    0.5599    0.0000    0.0       .         .        .        
         Zr37      Zr        0.5000    0.9401    0.0000    0.0       .         .        .        
         Zr38      Zr        0.5000    0.5000    0.0600    0.0       .         .        .        
         Zr39      Zr        0.5000    0.5000    0.4401    0.0       .         .        .        
         Zr40      Zr        0.5599    0.7500    0.2500    0.0       .         .        .        
         Zr41      Zr        0.5000    0.8099    0.2500    0.0       .         .        .        
         Zr42      Zr        0.7500    0.5599    0.2500    0.0       .         .        .        
         Zr43      Zr        0.7500    0.9401    0.2500    0.0       .         .        .        
         Zr44      Zr        0.7500    0.5000    0.3100    0.0       .         .        .        
         Zr45      Zr        0.8099    0.7500    0.0000    0.0       .         .        .        
         Zr46      Zr        0.6900    0.7500    0.0000    0.0       .         .        .        
         Zr47      Zr        0.7500    0.6900    0.0000    0.0       .         .        .        
         Zr48      Zr        0.7500    0.7500    0.4401    0.0       .         .        .        
         Zr49      Zr        0.4401    0.0000    0.5000    0.0       .         .        .        
         Zr50      Zr        0.0000    0.0600    0.5000    0.0       .         .        .        
         Zr51      Zr        0.0000    0.4401    0.5000    0.0       .         .        .        
         Zr52      Zr        0.0000    0.0000    0.5599    0.0       .         .        .        
         Zr53      Zr        0.0000    0.0000    0.9401    0.0       .         .        .        
         Zr54      Zr        0.4401    0.2500    0.7500    0.0       .         .        .        
         Zr55      Zr        0.0000    0.1900    0.7500    0.0       .         .        .        
         Zr56      Zr        0.0000    0.2500    0.8099    0.0       .         .        .        
         Zr57      Zr        0.3100    0.0000    0.7500    0.0       .         .        .        
         Zr58      Zr        0.2500    0.0600    0.7500    0.0       .         .        .        
         Zr59      Zr        0.1900    0.2500    0.5000    0.0       .         .        .        
         Zr60      Zr        0.2500    0.3100    0.5000    0.0       .         .        .        
         Zr61      Zr        0.2500    0.1900    0.5000    0.0       .         .        .        
         Zr62      Zr        0.2500    0.2500    0.9401    0.0       .         .        .        
         Zr63      Zr        0.0600    0.5000    0.5000    0.0       .         .        .        
         Zr64      Zr        0.0000    0.9401    0.5000    0.0       .         .        .        
         Zr65      Zr        0.0000    0.5000    0.9401    0.0       .         .        .        
         Zr66      Zr        0.0600    0.7500    0.7500    0.0       .         .        .        
         Zr67      Zr        0.4401    0.7500    0.7500    0.0       .         .        .        
         Zr68      Zr        0.0000    0.7500    0.8099    0.0       .         .        .        
         Zr69      Zr        0.2500    0.5599    0.7500    0.0       .         .        .        
         Zr70      Zr        0.2500    0.9401    0.7500    0.0       .         .        .        
         Zr71      Zr        0.2500    0.5000    0.8099    0.0       .         .        .        
         Zr72      Zr        0.2500    0.5000    0.6900    0.0       .         .        .        
         Zr73      Zr        0.1900    0.7500    0.5000    0.0       .         .        .        
         Zr74      Zr        0.2500    0.6900    0.5000    0.0       .         .        .        
         Zr75      Zr        0.2500    0.7500    0.9401    0.0       .         .        .        
         Zr76      Zr        0.5599    0.0000    0.5000    0.0       .         .        .        
         Zr77      Zr        0.5000    0.0600    0.5000    0.0       .         .        .        
         Zr78      Zr        0.5000    0.4401    0.5000    0.0       .         .        .        
         Zr79      Zr        0.9401    0.2500    0.7500    0.0       .         .        .        
         Zr80      Zr        0.5000    0.3100    0.7500    0.0       .         .        .        
         Zr81      Zr        0.5000    0.2500    0.6900    0.0       .         .        .        
         Zr82      Zr        0.7500    0.0600    0.7500    0.0       .         .        .        
         Zr83      Zr        0.7500    0.4401    0.7500    0.0       .         .        .        
         Zr84      Zr        0.7500    0.0000    0.8099    0.0       .         .        .        
         Zr85      Zr        0.7500    0.0000    0.6900    0.0       .         .        .        
         Zr86      Zr        0.7500    0.3100    0.5000    0.0       .         .        .        
         Zr87      Zr        0.7500    0.2500    0.5599    0.0       .         .        .        
         Zr88      Zr        0.7500    0.2500    0.9401    0.0       .         .        .        
         Zr89      Zr        0.5599    0.5000    0.5000    0.0       .         .        .        
         Zr90      Zr        0.5599    0.7500    0.7500    0.0       .         .        .        
         Zr91      Zr        0.9401    0.7500    0.7500    0.0       .         .        .        
         Zr92      Zr        0.5000    0.7500    0.6900    0.0       .         .        .        
         Zr93      Zr        0.8099    0.5000    0.7500    0.0       .         .        .        
         Zr94      Zr        0.6900    0.5000    0.7500    0.0       .         .        .        
         Zr95      Zr        0.8099    0.7500    0.5000    0.0       .         .        .        
         Zr96      Zr        0.7500    0.6900    0.5000    0.0       .         .        .        
         Hf1       Hf        0.9401    0.7500    0.2500    0.0       .         .        .        
         Hf2       Hf        0.0000    0.7500    0.1901    0.0       .         .        .        
         Hf3       Hf        0.0000    0.6901    0.2500    0.0       .         .        .        
         Hf4       Hf        0.6901    0.7500    0.5000    0.0       .         .        .        
         Hf5       Hf        0.7500    0.7500    0.5600    0.0       .         .        .        
         Hf6       Hf        0.7500    0.8099    0.5000    0.0       .         .        .        
         Hf7       Hf        0.5000    0.1901    0.7500    0.0       .         .        .        
         Hf8       Hf        0.5600    0.2500    0.7500    0.0       .         .        .        
         Hf9       Hf        0.5000    0.2500    0.8099    0.0       .         .        .        
         Hf10      Hf        0.5000    0.5599    0.5000    0.0       .         .        .        
         Hf11      Hf        0.4401    0.5000    0.5000    0.0       .         .        .        
         Hf12      Hf        0.5000    0.5000    0.5599    0.0       .         .        .        
         Hf13      Hf        0.0599    0.2500    0.7500    0.0       .         .        .        
         Hf14      Hf        0.0000    0.2500    0.6901    0.0       .         .        .        
         Hf15      Hf        0.0000    0.3099    0.7500    0.0       .         .        .        
         Hf16      Hf        0.0000    0.5599    0.5000    0.0       .         .        .        
         Hf17      Hf        0.9401    0.5000    0.5000    0.0       .         .        .        
         Hf18      Hf        0.0000    0.5000    0.5599    0.0       .         .        .        
         Hf19      Hf        0.8099    0.0000    0.2500    0.0       .         .        .        
         Hf20      Hf        0.7500    0.0000    0.1901    0.0       .         .        .        
         Hf21      Hf        0.7500    0.0599    0.2500    0.0       .         .        .        
         Hf22      Hf        0.0599    0.2500    0.2500    0.0       .         .        .        
         Hf23      Hf        0.0000    0.2500    0.1901    0.0       .         .        .        
         Hf24      Hf        0.0000    0.3099    0.2500    0.0       .         .        .        
         Hf25      Hf        0.2500    0.8099    0.5000    0.0       .         .        .        
         Hf26      Hf        0.2500    0.7500    0.5600    0.0       .         .        .        
         Hf27      Hf        0.3099    0.7500    0.5000    0.0       .         .        .        
         Hf28      Hf        0.2500    0.6901    0.0000    0.0       .         .        .        
         Hf29      Hf        0.3099    0.7500    0.0000    0.0       .         .        .        
         Hf30      Hf        0.2500    0.7500    0.0599    0.0       .         .        .        
         Hf31      Hf        0.5000    0.1901    0.2500    0.0       .         .        .        
         Hf32      Hf        0.5000    0.2500    0.3099    0.0       .         .        .        
         Hf33      Hf        0.4401    0.2500    0.2500    0.0       .         .        .        
         Hf34      Hf        0.2500    0.9401    0.2500    0.0       .         .        .        
         Hf35      Hf        0.2500    0.0000    0.3099    0.0       .         .        .        
         Hf36      Hf        0.1901    0.0000    0.2500    0.0       .         .        .        
         Hf37      Hf        0.6901    0.2500    0.0000    0.0       .         .        .        
         Hf38      Hf        0.7500    0.1901    0.0000    0.0       .         .        .        
         Hf39      Hf        0.7500    0.2500    0.0599    0.0       .         .        .        
         Hf40      Hf        0.0001    0.0599    0.0000    0.0       .         .        .        
         Hf41      Hf        0.0001    0.9401    0.0000    0.0       .         .        .        
         Hf42      Hf        0.0001    0.0000    0.0599    0.0       .         .        .        
         Hf43      Hf        0.5599    0.0001    0.0000    0.0       .         .        .        
         Hf44      Hf        0.4401    0.0001    0.0000    0.0       .         .        .        
         Hf45      Hf        0.5000    0.0001    0.9401    0.0       .         .        .        
         Hf46      Hf        0.9401    0.5000    0.0000    0.0       .         .        .        
         Hf47      Hf        0.0599    0.5000    0.0000    0.0       .         .        .        
         Hf48      Hf        0.0000    0.5000    0.0599    0.0       .         .        .        
         Hf49      Hf        0.0599    0.0001    0.5000    0.0       .         .        .        
         Hf50      Hf        0.9401    0.0001    0.5000    0.0       .         .        .        
         Hf51      Hf        0.0000    0.0001    0.4401    0.0       .         .        .        
         Hf52      Hf        0.2501    0.5599    0.2500    0.0       .         .        .        
         Hf53      Hf        0.2501    0.4401    0.2500    0.0       .         .        .        
         Hf54      Hf        0.2501    0.5000    0.3099    0.0       .         .        .        
         Hf55      Hf        0.2500    0.1901    0.0000    0.0       .         .        .        
         Hf56      Hf        0.2500    0.3099    0.0000    0.0       .         .        .        
         Hf57      Hf        0.1901    0.2500    0.0000    0.0       .         .        .        
         Hf58      Hf        0.2500    0.2499    0.4401    0.0       .         .        .        
         Hf59      Hf        0.2500    0.2499    0.5599    0.0       .         .        .        
         Hf60      Hf        0.3099    0.2499    0.5000    0.0       .         .        .        
         Hf61      Hf        0.4401    0.5000    0.0000    0.0       .         .        .        
         Hf62      Hf        0.5599    0.5000    0.0000    0.0       .         .        .        
         Hf63      Hf        0.5000    0.5000    0.9401    0.0       .         .        .        
         Hf64      Hf        0.5000    0.7500    0.1901    0.0       .         .        .        
         Hf65      Hf        0.5000    0.7500    0.3099    0.0       .         .        .        
         Hf66      Hf        0.5000    0.6901    0.2500    0.0       .         .        .        
         Hf67      Hf        0.5000    0.0000    0.5599    0.0       .         .        .        
         Hf68      Hf        0.5000    0.0000    0.4401    0.0       .         .        .        
         Hf69      Hf        0.5000    0.9401    0.5000    0.0       .         .        .        
         Hf70      Hf        0.8099    0.5000    0.2500    0.0       .         .        .        
         Hf71      Hf        0.6901    0.5000    0.2500    0.0       .         .        .        
         Hf72      Hf        0.7500    0.5000    0.1901    0.0       .         .        .        
         Hf73      Hf        0.6901    0.2500    0.5000    0.0       .         .        .        
         Hf74      Hf        0.8099    0.2500    0.5000    0.0       .         .        .        
         Hf75      Hf        0.7500    0.1901    0.5000    0.0       .         .        .        
         Hf76      Hf        0.7499    0.7500    0.0599    0.0       .         .        .        
         Hf77      Hf        0.7499    0.7500    0.9401    0.0       .         .        .        
         Hf78      Hf        0.7499    0.8099    0.0000    0.0       .         .        .        
         Hf79      Hf        0.2500    0.0001    0.6901    0.0       .         .        .        
         Hf80      Hf        0.2500    0.0001    0.8099    0.0       .         .        .        
         Hf81      Hf        0.1901    0.0001    0.7500    0.0       .         .        .        
         Hf82      Hf        0.3099    0.5000    0.7499    0.0       .         .        .        
         Hf83      Hf        0.1901    0.5000    0.7499    0.0       .         .        .        
         Hf84      Hf        0.2500    0.4401    0.7499    0.0       .         .        .        
         Hf85      Hf        0.0000    0.8099    0.7500    0.0       .         .        .        
         Hf86      Hf        0.0000    0.6901    0.7500    0.0       .         .        .        
         Hf87      Hf        0.0000    0.7500    0.6901    0.0       .         .        .        
         Hf88      Hf        0.5000    0.8099    0.7500    0.0       .         .        .        
         Hf89      Hf        0.5000    0.6901    0.7500    0.0       .         .        .        
         Hf90      Hf        0.5000    0.7500    0.8099    0.0       .         .        .        
         Hf91      Hf        0.8099    0.0000    0.7499    0.0       .         .        .        
         Hf92      Hf        0.6901    0.0000    0.7499    0.0       .         .        .        
         Hf93      Hf        0.7500    0.9401    0.7499    0.0       .         .        .        
         Hf94      Hf        0.7499    0.5000    0.8099    0.0       .         .        .        
         Hf95      Hf        0.7499    0.5000    0.6901    0.0       .         .        .        
         Hf96      Hf        0.7499    0.5599    0.7500    0.0       .         .        .