#\#CIF_2.0
# CIF file created by MOFUN using PyCifRW.
data_structure

_symmetry_space_group_name_H-M          'P 1'
_symmetry_Int_Tables_number             1
_cell_length_a                          10.0
_cell_length_b                          10.0
_cell_length_c                          10.0
_cell_angle_alpha                       90.0000
_cell_angle_beta                        90.0000
_cell_angle_gamma                       90.0000
loop_
  _atom_site_label
  _atom_site_type_symbol
  _atom_site_fract_x
  _atom_site_fract_y
  _atom_site_fract_z
  _atom_site_charge
  _atom_site_term1
  _atom_site_term2
         C1        C         0.2000    0.2000    0.2000    0.0       1         10       
         C2        C         0.2349    0.2000    0.0793    0.0       2         20       
         C3        C         0.0793    0.2000    0.2349    0.0       3         30       
         C4        C         0.3064    0.2000    0.3064    0.0       4         40       
         C5        C         0.2637    0.2000    0.4358    0.0       5         50       
         C6        C         0.1521    0.2000    0.4590    0.0       6         60       
         C7        C         0.3401    0.2000    0.6469    0.5       7         70       
         C8        C         0.3633    0.2000    0.5353    0.0       8         80       
         C9        C         0.4927    0.2000    0.4927    0.0       9         90       
         C10       C         0.5353    0.2000    0.3633    0.0       10        100      
         C11       C         0.4358    0.2000    0.2637    0.0       11        110      
         C12       C         0.4590    0.2000    0.1521    0.0       12        120      
         C13       C         0.6469    0.2000    0.3401    0.0       13        130      
         C14       C         0.7198    0.2000    0.5642    0.0       14        140      
         C15       C         0.5991    0.2000    0.5991    0.0       15        150      
         C16       C         0.5642    0.2000    0.7198    0.0       16        160
loop_
  _geom_bond_atom_site_label_1
  _geom_bond_atom_site_label_2
  _geom_bond_term
         C11       C12       1         
         C10       C13       2         
         C5        C6        3         
         C7        C8        4 
loop_
  _geom_angle_atom_site_label_1
  _geom_angle_atom_site_label_2
  _geom_angle_atom_site_label_3
  _geom_angle_term
         C12       C11       C4        1         
         C12       C11       C10       2         
         C11       C10       C13       3         
         C13       C10       C9        4         
         C4        C5        C6        5         
         C6        C5        C8        6         
         C5        C8        C7        7         
         C9        C8        C7        8 
loop_
  _geom_torsion_atom_site_label_1
  _geom_torsion_atom_site_label_2
  _geom_torsion_atom_site_label_3
  _geom_torsion_atom_site_label_4
  _geom_torsion_term
         C12       C11       C4        C1        1         
         C12       C11       C4        C5        2         
         C12       C11       C10       C13       3         
         C12       C11       C10       C9        4         
         C4        C11       C10       C13       5         
         C1        C4        C5        C6        6         
         C11       C4        C5        C6        7         
         C13       C10       C9        C8        8         
         C13       C10       C9        C15       9         
         C4        C5        C8        C7        10        
         C6        C5        C8        C9        11        
         C6        C5        C8        C7        12        
         C10       C9        C8        C7        13        
         C15       C9        C8        C7        14        
         C1        C4        C5        C11       15        
         C15       C9        C8        C10       16 